Version 4
SHEET 1 1892 680
WIRE 112 80 112 -48
WIRE 640 208 640 80
WIRE 592 224 464 224
WIRE -96 240 -160 240
WIRE 288 240 -16 240
WIRE 848 240 688 240
WIRE 592 256 464 256
WIRE 848 272 848 240
WIRE 112 320 112 160
WIRE -160 336 -160 240
WIRE 288 352 288 240
WIRE 640 400 640 272
WIRE 848 464 848 336
WIRE 112 496 112 400
FLAG -160 336 0
FLAG 288 352 gnda
FLAG 112 496 Vssa
FLAG 112 -48 Vdda
FLAG 640 80 Vdda
FLAG 464 224 inp
FLAG 464 256 inn
FLAG 640 400 Vssa
FLAG 848 464 gnda
SYMBOL voltage 112 64 R0
WINDOW 123 0 0 Left 0
WINDOW 39 0 0 Left 0
SYMATTR InstName V1
SYMATTR Value 1.65
SYMBOL voltage 112 304 R0
WINDOW 123 0 0 Left 0
WINDOW 39 0 0 Left 0
SYMATTR InstName V2
SYMATTR Value 1.65
SYMBOL res 0 224 R90
WINDOW 0 0 56 VBottom 2
WINDOW 3 32 56 VTop 2
SYMATTR InstName R1
SYMATTR Value 0.1
SYMBOL CMOSopamp 640 256 R0
SYMATTR InstName X1
SYMBOL cap 832 272 R0
SYMATTR InstName C1
SYMATTR Value 10p
TEXT 1048 -96 Left 2 !.MODEL NMOS5 NMOS (Kp=170u Vto=0.5 W=3.2u L=1u lambda=0.015)
TEXT 1048 -232 Left 2 !.MODEL PMOS1 PMOS (Kp=58u Vto=-0.5 W=2.2U L=2U lambda=0.04)
TEXT 1048 -168 Left 2 !.MODEL NMOS3 NMOS (Kp=170u Vto=0.5 W=6u L=2u lambda=0.002)
TEXT 1048 -200 Left 2 !.MODEL PMOS2 PMOS (Kp=58u Vto=-0.5 W=2.2u L=2u lambda=0.04)
TEXT 1048 -136 Left 2 !.MODEL NMOS4 NMOS (Kp=170u Vto=0.5 W=6u L=2u lambda=0.002)
TEXT 1048 -64 Left 2 !.MODEL NMOS6 NMOS (Kp=170u Vto=0.5 W=3.2u L=1u lambda=0.015)
TEXT 1048 -32 Left 2 !.MODEL PMOS7 PMOS (Kp=58u Vto=-0.5 W=X L=1u lambda=0.005)
TEXT 1048 0 Left 2 !.MODEL NMOS8 NMOS (Kp=170u Vto=0.5 W=X L=1u lambda=0.015)
