Version 4
SHEET 1 880 680
WIRE -384 32 -384 -16
WIRE 16 144 16 96
WIRE -512 160 -560 160
WIRE -384 160 -384 112
WIRE -384 160 -432 160
WIRE -288 160 -384 160
WIRE -16 160 -64 160
WIRE 128 176 80 176
WIRE 224 176 128 176
WIRE -16 192 -64 192
WIRE -560 208 -560 160
WIRE -384 208 -384 160
WIRE -288 208 -288 160
WIRE 224 224 224 176
WIRE 32 256 32 208
WIRE -384 336 -384 288
WIRE 224 336 224 288
FLAG -288 208 gnda
FLAG -560 208 0
FLAG -384 -16 vdda
FLAG 16 96 vdda
FLAG 32 256 vssa
FLAG -384 336 vssa
FLAG -64 160 inp
FLAG -64 192 inn
FLAG 128 176 out
FLAG 224 336 gnda
SYMBOL voltage -384 16 R0
WINDOW 123 0 0 Left 0
WINDOW 39 0 0 Left 0
SYMATTR InstName V1
SYMATTR Value 1.65
SYMBOL voltage -384 192 R0
WINDOW 123 0 0 Left 0
WINDOW 39 0 0 Left 0
SYMATTR InstName V2
SYMATTR Value 1.65
SYMBOL res -416 144 R90
WINDOW 0 0 56 VBottom 2
WINDOW 3 32 56 VTop 2
SYMATTR InstName R1
SYMATTR Value 0.1
SYMBOL cap 208 224 R0
SYMATTR InstName C2
SYMATTR Value 10p
SYMBOL CMOSamp 16 176 R0
SYMATTR InstName X2
TEXT -176 368 Left 2 !.step param W7 1u 10u 0.1u
TEXT -176 336 Left 2 !.op
TEXT -560 -296 Left 2 !.MODEL PMOS1 PMOS (Kp=58u Vto=-0.5 W=2.2u L=2u lambda=0.04)\n.MODEL PMOS2 PMOS (Kp=58u Vto=-0.5 W=2.2u L=2u lambda=0.04)\n.MODEL NMOS3 NMOS (Kp=170u Vto=0.5 W=6u L=2u lambda=0.002)\n.MODEL NMOS4 NMOS (Kp=170u Vto=0.5 W=6u L=2u lambda=0.002)\n.MODEL NMOS5 NMOS (Kp=170u Vto=0.5 W=3.2u L=1u lambda=0.015)\n.MODEL NMOS6 NMOS (Kp=170u Vto=0.5 W=3.2u L=1u lambda=0.015)\n.MODEL PMOS7 PMOS (Kp=58u Vto=-0.5 W={W7} L=1u lambda=0.005)\n.MODEL NMOS8 NMOS (Kp=170u Vto=0.5 W=6.877u L=1u lambda=0.015)
